LTspice 26.0.1 for Windows
Circuit: C:\Users\alice\OneDrive\Desktop\McGill\2025-2026\ECSE 597\ECSE597_Circuit-Simulation\Assignment 2\LT Spice\597A2.txt
Start Time: Sat Mar 14 21:01:12 2026
solver = Normal
Maximum thread count: 20
tnom = 27
temp = 27
method = trap
.OP point found by inspection.
.OP point found by inspection.
Total elapsed time: 0.037 seconds.

Files loaded:
C:\Users\alice\OneDrive\Desktop\McGill\2025-2026\ECSE 597\ECSE597_Circuit-Simulation\Assignment 2\LT Spice\597A2.txt

