LTspice 26.0.1 for Windows
Circuit: C:\Users\alice\OneDrive\Desktop\McGill\2025-2026\ECSE 597\Assignment 1\LT\as1.cir
Start Time: Thu Feb 19 14:09:08 2026
solver = Normal
Maximum thread count: 20
tnom = 27
temp = 27
method = trap
.OP point found by inspection.
.OP point found by inspection.
Total elapsed time: 0.066 seconds.

Files loaded:
C:\Users\alice\OneDrive\Desktop\McGill\2025-2026\ECSE 597\Assignment 1\LT\as1.cir

